116

C      -0.000000369800997     -1.427318898448071      0.000008096930999
C      -0.000000365809127      1.427319071837999      0.000009728229020
C      -0.000000072379606     -2.853481242667272      0.000004696044409
C      -0.000000061843608      2.853481331914379      0.000008315790939
C       1.248510145500983     -0.733728567702462      0.000005231525989
C       1.248510150596102      0.733728735568089      0.000006186830250
C      -1.248510998087437     -0.733728782446411      0.000005652627700
C      -1.248511009125377      0.733728939131499      0.000006505442769
C       2.418383271671663     -2.873381914956042      0.000000565095760
C      -2.418383587287377     -2.873382352355152      0.000001751316749
C       2.418383362144613      2.873381871800458      0.000003493036860
C      -2.418383665460357      2.873382318461999      0.000003061541780
C       2.427005303513614     -1.477305470017642      0.000002235071269
C      -2.427006171169457      1.477305826376609      0.000004727449590
C       2.427005374868234      1.477305459553119      0.000003983747180
C      -2.427006108119167     -1.477305829055711      0.000003492011269
C       1.221724524846723     -3.563196589848031      0.000003119454880
C      -1.221724546556327     -3.563196646031181      0.000004873768390
C       1.221724591582293      3.563196534083328      0.000008100102810
C      -1.221724601775337      3.563196581048048      0.000007502507800
C       1.232351522297863     -5.039398544080091     -0.000000066115720
C      -1.232350856347587     -5.039398693808711      0.000004532915789
C       1.232351540522753      5.039398487784089      0.000010570518610
C      -1.232350896824687      5.039398633876699      0.000005721399850
H       3.387173962060972     -0.979627496763591      0.000000102564860
H       3.387174040159353      0.979627497428549      0.000001806591670
H      -3.387175024774967     -0.979628377273052      0.000001620393689
H      -3.387175100945447      0.979628404289398      0.000002278222520
H      -3.346073886238887     -3.432744598668181      0.000000041229530
H       3.346073939646732     -3.432743552608292     -0.000002321894811
H       3.346073888449203      3.432743764296678      0.000001957353460
H      -3.346073811163427      3.432744837469958      0.000000572220200
O      -2.219132239719567     -5.717234169262691     -0.000016744301471
O       2.219133159777183     -5.717233615234531     -0.000011204522711
O       2.219133201402963      5.717233545981209     -0.000024140605780
O      -2.219132313843697      5.717234083063168     -0.000027041927380
O       0.000000486690892     -5.674989976180782     -0.000006160708431
O       0.000000476115574      5.674989906301420     -0.000006737118710
C       0.659709019923620      4.267729776683919      4.888270130217383
C      -0.693280051471265      4.259430525317162      4.894496335500771
C       0.711878895441936     -4.253094059752368      4.868506103524072
C      -0.641090637871660     -4.261399103382626      4.878075309114990
C       1.080451992007862      2.869146874383012      4.875476082297617
C      -1.096861746678145      2.855757913384159      4.901337562112035
C       1.115548129052782     -2.849452321138922      4.876486502793233
C      -1.061919551111429     -2.862785313600626      4.876045228695679
C       2.429041987217885      2.473668645316008      4.867467289712406
C      -2.440506395349034      2.443762389310779      4.907633067177911
C       2.459185111834528     -2.437453956467147      4.868779764828923
C      -2.410500844140767     -2.467310081669215      4.885466242949756
C       2.885518647763405      1.151577748533455      4.867941312509776
C      -2.880757620046985      1.116194562348394      4.901531550487729
C       2.899366757028214     -1.109860927466045      4.863068263013517
C      -2.866908758267201     -1.145244318599300      4.896802381724538
C       4.250564684056771      0.713474062156015      4.854054012067436
C      -4.240335222550900      0.661351096084145      4.913523783241263
C       4.259002977472486     -0.655038055894997      4.861053619855165
C      -4.232012879503026     -0.707119747998393      4.900713038146519
C       3.476618179010508      3.540251904699945      4.855319204141747
C       3.706502403258907      4.298029918798691      3.702415748631389
C       4.682897596930056      5.290893638435140      3.689048432550206
C       5.443417799652201      5.539933928150815      4.829793436815626
C       5.222022689917541      4.790303703252481      5.983168316506462
C       4.245782536968924      3.796951913399639      5.994849961796112
C      -3.501065637729444      3.497374934488511      4.924286145516720
C      -4.273345852993952      3.749475895737574      3.785836701676172
C      -5.261677944587458      4.730738751843290      3.801714237116899
C      -5.492206473247207      5.472693731954761      4.958258484095008
C      -4.728663152057629      5.228140923560131      6.097954469379822
C      -3.740182221397001      4.247374994927774      6.080393160198889
C      -3.458173113433320     -3.533858904739996      4.881121234235311
C      -3.701546804608778     -4.286822945972216      3.727832596653662
C      -4.678056042519556     -5.279645891685837      3.721743224977665
C      -5.425185568191067     -5.533465135734159      4.870257372305187
C      -5.190294709750614     -4.788651075220838      6.024082955952782
C      -4.213960203001325     -3.795333047425947      6.028490329798587
C       3.519841237498452     -3.491100840215934      4.868624679934875
C       4.278745505126835     -3.738425527911382      3.720176150366147
C       5.267171771310159     -4.719721851678629      3.720392947681298
C       5.511195086858111     -5.466495578430387      4.871052100535283
C       4.761041684758285     -5.226724115926198      6.020613179363274
C       3.772446880402017     -4.245917678334987      6.018712794630972
H       1.098695205233557      0.009851341658144      4.875973544117294
H      -1.080086799972529     -0.003518227514682      4.888698269692551
H       1.317086401412185      5.123535577129742      4.893073465545664
H      -1.361090208428558      5.107132952129978      4.893312360584614
H       1.379607884433796     -5.100768896640600      4.855968595922366
H      -1.298388520247469     -5.117232609422168      4.886995273932225
H       5.102563163986471      1.374200846238184      4.841143165140476
H      -5.100361113978897      1.311533180988497      4.929218570035660
H       5.119138046118456     -1.305258952664614      4.863972620100644
H      -5.084119931167226     -1.367807698990476      4.895011301836495
H       3.115234270244700      4.101449224701919      2.814418431317881
H       4.850995486391500      5.868482909502833      2.785732035693302
H       6.203787282360346      6.314088308876731      4.820087000127388
H       5.806891008506844      4.980961715433259      6.877289682753614
H       4.068126913448501      3.216981861591466      6.894348335548913
H      -4.088624852140270      3.175551876969374      2.883887008199790
H      -5.848861599492851      4.918016903451894      2.908396382407698
H      -6.261999731422459      6.237429762268297      4.971235163924691
H      -4.903798091396895      5.799784523457037      7.003712916912916
H      -3.146527937223454      4.054277818449350      6.967562324055671
H      -3.120702800782642     -4.086521609013418      2.833807658672590
H      -4.856723943177963     -5.853462860716505      2.818051428547499
H      -6.185635942265623     -6.307590581702174      4.866214510096522
H      -5.764668187807484     -4.983054252540407      6.924181362708446
H      -4.025780085556676     -3.219118433470086      6.928261856078041
H       4.083500076658610     -3.160744492210656      2.822853482671371
H       5.843860606734836     -4.903253041138156      2.819493023462563
H       6.281068438774333     -6.231260458756493      4.871828605873644
H       4.946745563160583     -5.802142062219206      6.921865112740769
H       3.189215412853259     -4.056543053144664      6.913564511650927
N      -0.003157974232493      2.038357252833760      4.886656040910664
N       0.021767929979700     -2.032023658271866      4.878015598281187
N       2.110576965672973      0.016060724426912      4.870067850432452
N      -2.091967709129373     -0.009727276286524      4.894603163929061
